* C:\Users\jia19\Documents\ME759\Draft2.asc
R1 N002 N001 10
R2 N003 N002 20
R3 N004 N003 30
R4 N007 N002 40
R5 0 N003 50
R6 N006 N007 60
R7 0 N004 70
I1 N001 N005 1
I2 0 N007 2
R8 N005 N006 80
;tran 1
.backanno
.end