* C:\Users\jia19\Documents\ME759\Draft2.asc
R1 N001 0 10
R2 N002 N001 20
R3 N003 N002 30
R4 N006 N001 40
R5 N007 N002 50
R6 N005 N006 60
R7 N007 N003 70
I1 0 N004 1
I2 N007 N006 2
R8 N004 N005 80
;tran 1
.tran 1
.backanno
.end
